Version 4
SHEET 1 1176 680
WIRE 928 -144 464 -144
WIRE 1120 -144 928 -144
WIRE -384 -112 -496 -112
WIRE 1120 -112 1120 -144
WIRE -496 -96 -496 -112
WIRE 464 -96 464 -144
WIRE 464 -96 -80 -96
WIRE 928 -96 928 -144
WIRE -384 -64 -384 -112
WIRE -336 -64 -384 -64
WIRE -80 -64 -80 -96
WIRE -80 -64 -160 -64
WIRE 576 -32 336 -32
WIRE 736 -32 576 -32
WIRE 928 0 928 -32
WIRE 1120 0 1120 -32
WIRE 1120 0 928 0
WIRE -496 16 -496 -16
WIRE -336 16 -496 16
WIRE -80 16 -160 16
WIRE 576 16 576 -32
WIRE 736 16 736 -32
WIRE -496 32 -496 16
WIRE 928 64 928 0
WIRE 464 96 464 -96
WIRE 336 112 336 -32
WIRE 336 112 272 112
WIRE 432 112 336 112
WIRE 576 128 576 80
WIRE 576 128 496 128
WIRE 736 128 736 96
WIRE 736 128 576 128
WIRE 800 128 736 128
WIRE 928 128 880 128
WIRE 1040 128 928 128
WIRE -192 144 -240 144
WIRE -80 144 -80 16
WIRE -80 144 -128 144
WIRE -64 144 -80 144
WIRE 64 144 16 144
WIRE 176 144 64 144
WIRE 432 144 176 144
WIRE 64 160 64 144
WIRE 176 160 176 144
WIRE 272 160 272 112
WIRE -240 192 -240 144
WIRE 928 192 928 128
WIRE -240 304 -240 272
WIRE 64 304 64 224
WIRE 64 304 -240 304
WIRE 176 304 176 240
WIRE 176 304 64 304
WIRE 272 304 272 240
WIRE 272 304 176 304
WIRE 464 304 464 160
WIRE 464 304 272 304
WIRE 928 304 928 256
WIRE 928 304 464 304
WIRE 1056 304 928 304
WIRE 1056 320 1056 304
WIRE 464 336 464 304
FLAG 1056 320 0
FLAG 928 64 0
FLAG 464 336 0
FLAG 1040 128 ADC
FLAG -496 32 0
SYMBOL res 192 256 R180
WINDOW 0 36 76 Left 2
WINDOW 3 26 10 Left 2
SYMATTR InstName R1
SYMATTR Value 100k
SYMBOL res 288 256 R180
WINDOW 0 36 76 Left 2
WINDOW 3 36 40 Left 2
SYMATTR InstName R2
SYMATTR Value 1k
SYMBOL res 752 112 R180
WINDOW 0 36 76 Left 2
WINDOW 3 36 40 Left 2
SYMATTR InstName R3
SYMATTR Value 100k
SYMBOL res -80 160 R270
WINDOW 0 32 56 VTop 2
WINDOW 3 0 56 VBottom 2
SYMATTR InstName R5
SYMATTR Value 10k
SYMBOL cap 48 160 R0
SYMATTR InstName C1
SYMATTR Value 100n
SYMBOL cap 912 192 R0
SYMATTR InstName C2
SYMATTR Value 100n
SYMBOL cap 912 -96 R0
WINDOW 3 31 58 Left 2
SYMATTR Value 100n
SYMATTR InstName C3
SYMBOL cap 560 16 R0
SYMATTR InstName C4
SYMATTR Value 1µ
SYMATTR SpiceLine V=16 Irms=0 Rser=0 Lser=0 mfg="Murata" pn="GRM155R61C105KA12" type="X5R"
SYMBOL res 896 112 R90
WINDOW 0 0 56 VBottom 2
WINDOW 3 32 56 VTop 2
SYMATTR InstName R6
SYMATTR Value 1k
SYMBOL OpAmps\\LTC1050 464 64 R0
SYMATTR InstName U1
SYMBOL voltage 1120 -128 R0
WINDOW 123 0 0 Left 0
WINDOW 39 0 0 Left 0
SYMATTR InstName V1
SYMATTR Value 5
SYMBOL voltage -496 -112 R0
WINDOW 3 -333 59 Left 2
WINDOW 123 24 44 Left 2
WINDOW 39 0 0 Left 0
SYMATTR Value PULSE(0 1 0.2 0.1 0.1 20)
SYMATTR Value2 AC 1
SYMATTR InstName V2
SYMBOL Capteur_gaz -256 -32 R0
SYMATTR InstName X1
SYMBOL cap -128 128 R90
WINDOW 0 0 32 VBottom 2
WINDOW 3 32 32 VTop 2
SYMATTR InstName C5
SYMATTR Value 1p
SYMBOL voltage -240 176 R0
WINDOW 123 0 0 Left 0
WINDOW 39 0 0 Left 0
SYMATTR InstName V3
SYMATTR Value SINE(0 325 50)
TEXT -56 376 Left 2 !.tran 2
TEXT -48 440 Left 2 ;;.ac dec 100 0.1 1G
